24
Properties=species:S:1:pos:R:3 4AMP=T pbc="F F F"
N        0.25540000      -0.23700000      -2.28880000
N       -0.14880000      -0.43980000       3.02570000
C       -0.28330000       0.23750000       0.57430000
C        0.13500000       1.37860000      -0.38580000
C        0.25130000      -1.11620000       0.04850000
C       -0.28250000       1.10800000      -1.83170000
C       -0.18070000      -1.37940000      -1.39770000
C        0.22660000       0.59200000       1.98040000
H       -1.40240000       0.19570000       0.60320000
H        1.24130000       1.53130000      -0.33780000
H       -0.32720000       2.34550000      -0.08060000
H       -0.13000000      -1.98340000       0.63940000
H        1.36680000      -1.14760000       0.11780000
H       -1.38860000       1.06100000      -1.95390000
H        0.11520000       1.88110000      -2.52640000
H        0.26980000      -2.31290000      -1.80220000
H       -1.28860000      -1.45170000      -1.49780000
H       -0.19920000       1.55930000       2.33100000
H        1.33740000       0.66900000       2.01560000
H       -0.06060000      -0.42410000      -3.26770000
H       -1.18390000      -0.55920000       3.11660000
H        0.20340000      -0.15410000       3.96840000
H        0.25910000      -1.37960000       2.82460000
H        1.30020000      -0.20000000      -2.33020000
