17
Properties=species:S:1:pos:R:3:initial_charges:R:1 pbc="F F F"
N       -0.01370000       0.33260000       2.39780000      -0.85000000
C        0.02830000       0.32440000      -0.04960000       0.00000000
C        0.00240000      -0.54210000       1.20070000       0.50000000
C       -0.00070000      -0.53480000      -1.31300000       0.00000000
C       -0.01170000       0.32150000      -2.56940000       0.00000000
H        0.92840000       0.95150000      -0.05030000       0.00000000
H       -0.83440000       1.00240000      -0.04870000       0.00000000
H       -0.89690000      -1.16310000       1.25110000       0.00000000
H        0.89180000      -1.17420000       1.27970000       0.00000000
H       -0.89080000      -1.17480000      -1.30830000       0.00000000
H        0.87380000      -1.19540000      -1.33390000       0.00000000
H       -0.84210000       0.94250000       2.41120000       0.45000000
H        0.81820000       0.93640000       2.43780000       0.45000000
H       -0.02970000      -0.22410000       3.26260000       0.45000000
H        0.88100000       0.95310000      -2.62130000       0.00000000
H       -0.89360000       0.96960000      -2.59490000       0.00000000
H       -0.03090000      -0.31340000      -3.46070000       0.00000000
