8
Properties=species:S:1:pos:R:3 CN2H5=T pbc="F F F"
N        0.00000000      -0.16900000       1.20120000
N        0.00000000      -0.18300000      -1.18190000
C        0.00000000       0.40480000      -0.03340000
H        0.00020000       1.50560000       0.02150000
H       -0.00050000       0.39050000       2.04740000
H       -0.00070000      -1.17700000       1.31250000
H        0.00010000       0.52350000      -1.92600000
H       -0.00010000      -1.17280000      -1.32470000
