8
Properties=species:S:1:pos:R:3:initial_charges:R:1 pbc="F F F"
N       -0.00000000      -0.00000000       0.68800000      -0.85000000
C        0.00000000      -0.00000000      -0.78760000       0.50000000
H        0.90440000      -0.31530000       1.06270000       0.45000000
H       -0.72520000      -0.62560000       1.06280000       0.45000000
H       -0.17910000       0.94090000       1.06270000       0.45000000
H        0.19430000      -1.02100000      -1.12160000       0.00000000
H       -0.98140000       0.34220000      -1.12150000       0.00000000
H        0.78700000       0.67880000      -1.12150000       0.00000000
