18
Properties=species:S:1:pos:R:3:initial_charges:R:1 pbc="F F F"
N       -1.13930858      -0.00010000       2.57244232      -0.85000000
C        0.22460301       0.00000000       1.97531132       0.65000000
C        0.21762343       0.00010000       0.48363745      -0.14000000
C        0.21436920       1.20810000      -0.21372210      -0.15000000
C        0.21427072      -1.20790000      -0.21373946      -0.15000000
C        0.20758268       1.20800000      -1.60859177      -0.15000000
C        0.20777964      -1.20810000      -1.60855704      -0.15000000
C        0.20446166      -0.00010000      -2.30613092      -0.15000000
H        0.73749301      -0.88310000       2.37210187       0.00000000
H        0.73727868       0.88310000       2.37216563       0.00000000
H        0.21514998       2.15590000       0.31799141       0.15000000
H        0.21503414      -2.15570000       0.31807252       0.15000000
H       -1.09344834      -0.00020000       3.60001704       0.45000000
H       -1.67631001      -0.83060000       2.28878359       0.45000000
H       -1.67644323       0.83030000       2.28896318       0.45000000
H        0.20444262       2.14840000      -2.15168788       0.15000000
H        0.20473807      -2.14860000      -2.15163579       0.15000000
H        0.19906788       0.00000000      -3.39216686       0.15000000
